192

S          4.41206        0.86727       18.06017
C          3.34187        0.38468       16.77239
C          3.56277        0.59521       15.41984
C          2.61694        0.15790       14.50436
C          1.47450       -0.49846       14.97366
C          1.24842       -0.70124       16.31598
C          2.17180       -0.24381       17.24852
C          2.17832       -0.28019       18.66741
C          2.78739        0.45898       13.03997
C          3.95327       -0.19118       12.34398
C          4.11989        0.27013       10.91030
C          5.29033       -0.30573       10.16958
C          5.44958        0.23684        8.76850
C          6.61334       -0.31037        7.99328
C          6.75660        0.25774        6.60736
C          7.90252       -0.29876        5.79954
C          8.03803        0.27787        4.42500
C          9.16879       -0.27709        3.60960
C          9.28560        0.29567        2.22861
C         10.38622       -0.25232        1.37834
H          4.35861        1.03484       15.12529
H          0.83600       -0.83824       14.33680
H          0.43568       -1.15713       16.59991
H          1.97763        0.18189       12.57787
H          2.86662        1.40636       12.91905
H          4.74447       -0.00387       12.84323
H          3.81943       -1.14862       12.35801
H          3.32796        0.05728       10.42470
H          4.22361        1.22369       10.91750
H          6.08612       -0.13158       10.67868
H          5.17636       -1.26317       10.13281
H          4.65366        0.06115        8.27153
H          5.56933        1.18809        8.81361
H          7.41444       -0.16951        8.49897
H          6.49260       -1.27942        7.93035
H          5.94242        0.11842        6.11835
H          6.88717        1.21208        6.68318
H          8.69546       -0.15170        6.30031
H          7.75126       -1.24691        5.73927
H          7.21089        0.14087        3.94243
H          8.15744        1.23453        4.50347
H          9.98312       -0.12152        4.08269
H          9.04166       -1.22834        3.54061
H          8.42307        0.19195        1.76651
H          9.40980        1.26472        2.29723
H         10.20969       -1.20357        1.26613
H         10.37109        0.14396        0.51176
H         11.19701       -0.13081        1.79684
S          1.06223       -0.86727       19.84783
C          2.13242       -0.38468       21.13560
C          1.91152       -0.59521       22.48816
C          2.85735       -0.15790       23.40364
C          3.99979        0.49846       22.93434
C          4.22587        0.70124       21.59202
C          3.30249        0.24381       20.65948
C          3.29597        0.28019       19.24058
C          2.68690       -0.45898       24.86802
C          1.52102        0.19118       25.56402
C          1.35441       -0.27013       26.99770
C          0.18396        0.30573       27.73842
C          0.02472       -0.23684       29.13950
C         -1.13905        0.31037       29.91472
C         -1.28231       -0.25774       31.30063
C         -2.42822        0.29876       32.10845
C         -2.56374       -0.27787       33.48300
C         -3.69449        0.27709       34.29840
C         -3.81131       -0.29567       35.67939
C         -4.91193        0.25232       36.52966
H          1.11568       -1.03484       22.78271
H          4.63829        0.83824       23.57119
H          5.03861        1.15713       21.30808
H          3.49666       -0.18189       25.33012
H          2.60767       -1.40636       24.98895
H          0.72982        0.00387       25.06477
H          1.65487        1.14862       25.54999
H          2.14633       -0.05728       27.48330
H          1.25069       -1.22369       26.99049
H         -0.61183        0.13158       27.22931
H          0.29793        1.26317       27.77519
H          0.82063       -0.06115       29.63647
H         -0.09503       -1.18809       29.09439
H         -1.94015        0.16951       29.40902
H         -1.01831        1.27942       29.97764
H         -0.46813       -0.11842       31.78965
H         -1.41288       -1.21208       31.22482
H         -3.22117        0.15170       31.60769
H         -2.27697        1.24691       32.16873
H         -1.73660       -0.14087       33.96556
H         -2.68315       -1.23453       33.40453
H         -4.50883        0.12152       33.82531
H         -3.56737        1.22834       34.36739
H         -2.94877       -0.19195       36.14148
H         -3.93551       -1.26472       35.61077
H         -4.73540        1.20357       36.64187
H         -4.89679       -0.14396       37.39624
H         -5.72272        0.13081       36.11116
S         -1.86977        4.73727       19.84783
C         -0.79958        4.25468       21.13560
C         -1.02048        4.46521       22.48816
C         -0.07465        4.02790       23.40364
C          1.06779        3.37154       22.93434
C          1.29387        3.16876       21.59202
C          0.37050        3.62619       20.65948
C          0.36397        3.58981       19.24058
C         -0.24510        4.32898       24.86802
C         -1.41098        3.67882       25.56402
C         -1.57760        4.14013       26.99770
C         -2.74804        3.56427       27.73842
C         -2.90728        4.10684       29.13950
C         -4.07105        3.55963       29.91472
C         -4.21431        4.12774       31.30063
C         -5.36022        3.57124       32.10845
C         -5.49574        4.14787       33.48300
C         -6.62649        3.59291       34.29840
C         -6.74331        4.16567       35.67939
C         -7.84393        3.61768       36.52966
H         -1.81632        4.90484       22.78271
H          1.70629        3.03176       23.57119
H          2.10661        2.71287       21.30808
H          0.56466        4.05189       25.33012
H         -0.32433        5.27636       24.98895
H         -2.20218        3.86613       25.06477
H         -1.27713        2.72138       25.54999
H         -0.78567        3.92728       27.48330
H         -1.68131        5.09369       26.99049
H         -3.54383        3.73842       27.22931
H         -2.63407        2.60683       27.77519
H         -2.11137        3.93115       29.63647
H         -3.02703        5.05809       29.09439
H         -4.87215        3.70049       29.40902
H         -3.95031        2.59058       29.97764
H         -3.40013        3.98842       31.78965
H         -4.34488        5.08208       31.22482
H         -6.15317        3.71830       31.60769
H         -5.20897        2.62309       32.16873
H         -4.66860        4.01087       33.96556
H         -5.61515        5.10453       33.40453
H         -7.44083        3.74848       33.82531
H         -6.49937        2.64166       34.36739
H         -5.88077        4.06195       36.14148
H         -6.86751        5.13472       35.61077
H         -7.66740        2.66643       36.64187
H         -7.82879        4.01396       37.39624
H         -8.65472        3.73919       36.11116
S          1.48006        3.00273       18.06017
C          0.40987        3.48532       16.77239
C          0.63077        3.27479       15.41984
C         -0.31506        3.71210       14.50436
C         -1.45750        4.36846       14.97366
C         -1.68358        4.57124       16.31598
C         -0.76020        4.11381       17.24852
C         -0.75368        4.15019       18.66741
C         -0.14461        3.41102       13.03997
C          1.02127        4.06118       12.34398
C          1.18789        3.59987       10.91030
C          2.35833        4.17573       10.16958
C          2.51758        3.63316        8.76850
C          3.68134        4.18037        7.99328
C          3.82460        3.61226        6.60736
C          4.97052        4.16876        5.79954
C          5.10603        3.59213        4.42500
C          6.23679        4.14709        3.60960
C          6.35360        3.57433        2.22861
C          7.45422        4.12232        1.37834
H          1.42661        2.83516       15.12529
H         -2.09599        4.70824       14.33680
H         -2.49632        5.02713       16.59991
H         -0.95437        3.68811       12.57787
H         -0.06538        2.46364       12.91905
H          1.81247        3.87387       12.84323
H          0.88743        5.01862       12.35801
H          0.39596        3.81272       10.42470
H          1.29161        2.64631       10.91750
H          3.15412        4.00158       10.67868
H          2.24436        5.13317       10.13281
H          1.72166        3.80885        8.27153
H          2.63733        2.68191        8.81361
H          4.48244        4.03951        8.49897
H          3.56060        5.14942        7.93035
H          3.01042        3.75158        6.11835
H          3.95517        2.65792        6.68318
H          5.76346        4.02170        6.30031
H          4.81926        5.11691        5.73927
H          4.27889        3.72913        3.94243
H          5.22544        2.63547        4.50347
H          7.05112        3.99152        4.08269
H          6.10966        5.09834        3.54061
H          5.49107        3.67805        1.76651
H          6.47780        2.60528        2.29723
H          7.27769        5.07357        1.26613
H          7.43909        3.72604        0.51176
H          8.26501        4.00081        1.79684
