84

S          7.43982        0.88332        7.65984
C          9.49322        1.24780        9.51325
C          8.17657        1.39770        9.16602
C          7.23333        2.00090       10.04858
C          7.66909        2.45540       11.27593
C          9.01810        2.31490       11.67080
C          9.49138        2.77850       12.92868
C         10.80390        2.65540       13.27643
C         11.71870        2.06440       12.38916
C         11.30220        1.60130       11.17542
C          9.94854        1.71290       10.77079
C          5.86461        1.45850        8.17929
C          5.90170        2.04150        9.46405
C          4.73141        2.56540       10.01107
H         10.08690        0.84110        8.92330
H          7.06380        2.86130       11.85300
H          8.89630        3.17260       13.52460
H         11.09430        2.96350       14.10390
H         12.61410        1.98870       12.63120
H         11.91810        1.20480       10.60190
H          4.73490        2.95880       10.85310
S          1.98652        3.06168        9.78894
C         -0.06688        2.69720        7.93553
C          1.24977        2.54730        8.28276
C          2.19301        1.94410        7.40021
C          1.75725        1.48960        6.17286
C          0.40824        1.63010        5.77799
C         -0.06503        1.16650        4.52011
C         -1.37760        1.28960        4.17235
C         -2.29240        1.88060        5.05962
C         -1.87586        2.34370        6.27336
C         -0.52220        2.23210        6.67800
C          3.56173        2.48650        9.26949
C          3.52465        1.90350        7.98474
C          4.69493        1.37960        7.43772
H         -0.66060        3.10390        8.52550
H          2.36260        1.08370        5.59580
H          0.53010        0.77240        3.92420
H         -1.66800        0.98150        3.34490
H         -3.18780        1.95630        4.81760
H         -2.49180        2.74020        6.84690
H          4.69150        0.98620        6.59560
S         -5.80931        2.85582       18.51334
C         -7.86271        3.22030       16.65993
C         -6.54606        3.37020       17.00716
C         -5.60282        3.97340       16.12460
C         -6.03858        4.42790       14.89725
C         -7.38759        4.28740       14.50239
C         -7.86086        4.75100       13.24450
C         -9.17340        4.62790       12.89675
C        -10.08820        4.03690       13.78402
C         -9.67169        3.57380       14.99776
C         -8.31803        3.68540       15.40239
C         -4.23409        3.43100       17.99389
C         -4.27118        4.01400       16.70913
C         -3.10089        4.53790       16.16211
H         -8.45640        2.81360       17.24990
H         -5.43330        4.83380       14.32020
H         -7.26570        5.14510       12.64860
H         -9.46380        4.93600       12.06930
H        -10.98360        3.96120       13.54200
H        -10.28760        3.17730       15.57130
H         -3.10440        4.93120       15.32000
S         -0.35601        5.03418       16.38424
C          1.69739        4.66970       18.23765
C          0.38074        4.51980       17.89042
C         -0.56249        3.91660       18.77298
C         -0.12673        3.46210       20.00032
C          1.22228        3.60260       20.39519
C          1.69555        3.13900       21.65307
C          3.00810        3.26210       22.00083
C          3.92290        3.85310       21.11356
C          3.50637        4.31620       19.89982
C          2.15271        4.20460       19.49518
C         -1.93122        4.45900       16.90369
C         -1.89413        3.87600       18.18844
C         -3.06442        3.35210       18.73546
H          2.29110        5.07640       17.64770
H         -0.73200        3.05620       20.57740
H          1.10040        2.74490       22.24890
H          3.29850        2.95400       22.82820
H          4.81830        3.92880       21.35560
H          4.12230        4.71270       19.32630
H         -3.06100        2.95870       19.57750
