72

C          4.68186        3.17375        0.21045
C          3.70858        3.16923        1.22035
C          3.89919        2.49514        2.45199
C          2.93463        2.53282        3.45059
C          3.11770        1.87515        4.69919
C          2.16166        1.93773        5.66247
C          0.95765        2.64102        5.43930
C          0.73069        3.26927        4.26557
C          1.70174        3.25635        3.22460
C          1.50338        3.91504        2.02261
C          4.50029        3.85332       -1.00142
H          5.47513        2.70880        0.35014
H          4.68460        2.01851        2.59437
H          3.89953        1.39652        4.85724
H          2.30194        1.51296        6.47787
H          0.31345        2.67247        6.10951
H         -0.07320        3.71837        4.13605
H          0.71151        4.38177        1.88193
C          2.30449        4.56780       -0.21045
C          3.27777        4.57233       -1.22035
C          3.08716        5.24642       -2.45199
C          4.05171        5.20874       -3.45059
C          3.86864        5.86641       -4.69919
C          4.82468        5.80383       -5.66247
C          6.02870        5.10054       -5.43930
C          6.25565        4.47229       -4.26557
C          5.28460        4.48521       -3.22460
C          5.48296        3.82652       -2.02261
C          2.48606        3.88824        1.00142
H          1.51121        5.03276       -0.35014
H          2.30174        5.72305       -2.59437
H          3.08681        6.34504       -4.85724
H          4.68440        6.22860       -6.47787
H          6.67290        5.06909       -6.10951
H          7.05954        4.02318       -4.13605
H          6.27484        3.35979       -1.88193
C         -0.47213        7.26237       -0.57627
C         -0.28682        7.16981        0.82204
C         -1.26748        6.59766        1.65538
C         -1.08939        6.49789        3.00708
C         -2.07360        5.92432        3.88986
C         -1.86848        5.82762        5.23168
C         -0.63509        6.30826        5.81078
C          0.30995        6.86288        5.03394
C          0.12073        6.98666        3.60737
C          1.10509        7.55193        2.80369
C          0.49199        7.82013       -1.41809
H         -1.26189        6.94089       -0.94803
H         -2.05564        6.27992        1.27755
H         -2.87294        5.61094        3.53166
H         -2.52263        5.45254        5.77575
H         -0.49471        6.23317        6.72674
H          1.09793        7.17101        5.41953
H          1.88715        7.86481        3.19720
C          1.91281        8.22075        0.57627
C          1.72750        8.31330       -0.82204
C          2.70816        8.88546       -1.65538
C          2.53007        8.98523       -3.00708
C          3.51429        9.55879       -3.88986
C          3.30916        9.65549       -5.23168
C          2.07577        9.17486       -5.81078
C          1.13073        8.62024       -5.03394
C          1.31995        8.49646       -3.60737
C          0.33560        7.93119       -2.80369
C          0.94870        7.66299        1.41809
H          2.70258        8.54223        0.94803
H          3.49632        9.20320       -1.27755
H          4.31363        9.87218       -3.53166
H          3.96332       10.03058       -5.77575
H          1.93540        9.24995       -6.72674
H          0.34275        8.31211       -5.41953
H         -0.44646        7.61831       -3.19720
